LTspice 24.0.9 for Windows
Circuit: * C:\Users\frisc\Documents\GitHub\CW-Tracker\Transmitter\Simulations\class-B-2n2222-500kHz.asc
Start Time: Sun May 26 09:23:22 2024
Warning: Multiple definitions of model "2scr375p" Type: BJT
Warning: Multiple definitions of model "bc857b" Type: BJT
Warning: Multiple definitions of model "bc847c" Type: BJT
Warning: Multiple definitions of model "bc847b" Type: BJT
solver = Normal
Maximum thread count: 4



Direct Newton iteration for .op point succeeded.
.step amp=0.1



.step amp=0.2



.step amp=0.3



.step amp=0.4



.step amp=0.5



.step amp=0.6
tnom = 27
temp = 27
method = modified trap
.step amp=0.7


Measurement: pin
  step	AVG(v(supply)*i(v1))	FROM	TO
     1	0	1000	1e+09
     2	0	1000	1e+09
     3	0	1000	1e+09
     4	0	1000	1e+09
     5	0	1000	1e+09
     6	0	1000	1e+09
     7	0	1000	1e+09

Measurement: pout
  step	AVG(v(out)*i(r1))	FROM	TO
     1	3.56945e-06	1000	1e+09
     2	3.56945e-06	1000	1e+09
     3	3.56945e-06	1000	1e+09
     4	3.56945e-06	1000	1e+09
     5	3.56945e-06	1000	1e+09
     6	3.56945e-06	1000	1e+09
     7	3.56945e-06	1000	1e+09

Measurement: eff
  step	-100*pout/pin
     1	(-nan(ind)dB,-nan(ind)°)
     2	(-nan(ind)dB,-nan(ind)°)
     3	(-nan(ind)dB,-nan(ind)°)
     4	(-nan(ind)dB,-nan(ind)°)
     5	(-nan(ind)dB,-nan(ind)°)
     6	(-nan(ind)dB,-nan(ind)°)
     7	(-nan(ind)dB,-nan(ind)°)

Measurement: out
  step	PP(v(out))	FROM	TO
     1	(94.665dB,131.837°)	1000	1e+09
     2	(94.665dB,131.837°)	1000	1e+09
     3	(94.665dB,131.837°)	1000	1e+09
     4	(94.665dB,131.837°)	1000	1e+09
     5	(94.665dB,131.837°)	1000	1e+09
     6	(94.665dB,131.837°)	1000	1e+09
     7	(94.665dB,131.837°)	1000	1e+09

Measurement: in
  step	PP(v(in))	FROM	TO
     1	(0dB,0°)	1000	1e+09
     2	(0dB,0°)	1000	1e+09
     3	(0dB,0°)	1000	1e+09
     4	(0dB,0°)	1000	1e+09
     5	(0dB,0°)	1000	1e+09
     6	(0dB,0°)	1000	1e+09
     7	(0dB,0°)	1000	1e+09

Measurement: gain
  step	out/in
     1	(94.665dB,131.837°)
     2	(94.665dB,131.837°)
     3	(94.665dB,131.837°)
     4	(94.665dB,131.837°)
     5	(94.665dB,131.837°)
     6	(94.665dB,131.837°)
     7	(94.665dB,131.837°)

Total elapsed time: 0.382 seconds.

