LTspice 24.0.9 for Windows
Circuit: * C:\Users\frisc\Documents\GitHub\CW-Tracker\Transmitter\Simulations\class-B-2n2222-220MHz.asc
Start Time: Sun May 26 12:05:38 2024
Warning: Multiple definitions of model "2scr375p" Type: BJT
Warning: Multiple definitions of model "bc857b" Type: BJT
Warning: Multiple definitions of model "bc847c" Type: BJT
Warning: Multiple definitions of model "bc847b" Type: BJT
solver = Normal
Maximum thread count: 4



Direct Newton iteration for .op point succeeded.
.step zx=1



.step zx=2



.step zx=3



.step zx=4



.step zx=5



.step zx=6



.step zx=7
tnom = 27
temp = 27
method = modified trap
.step zx=8


Measurement: pin
  step	AVG(v(supply)*i(v1))	FROM	TO
     1	0	1000	1e+09
     2	0	1000	1e+09
     3	0	1000	1e+09
     4	0	1000	1e+09
     5	0	1000	1e+09
     6	0	1000	1e+09
     7	0	1000	1e+09
     8	0	1000	1e+09

Measurement: pout
  step	AVG(v(out)*i(r1))	FROM	TO
     1	3.56412e-05	1000	1e+09
     2	0.000634126	1000	1e+09
     3	0.00503743	1000	1e+09
     4	0.00503743	1000	1e+09
     5	0.00503743	1000	1e+09
     6	0.00503743	1000	1e+09
     7	0.00503743	1000	1e+09
     8	0.00503743	1000	1e+09

Measurement: eff
  step	-100*pout/pin
     1	(-nan(ind)dB,-nan(ind)°)
     2	(-nan(ind)dB,-nan(ind)°)
     3	(-nan(ind)dB,-nan(ind)°)
     4	(-nan(ind)dB,-nan(ind)°)
     5	(-nan(ind)dB,-nan(ind)°)
     6	(-nan(ind)dB,-nan(ind)°)
     7	(-nan(ind)dB,-nan(ind)°)
     8	(-nan(ind)dB,-nan(ind)°)

Measurement: out
  step	PP(v(out))	FROM	TO
     1	(94.6718dB,132.36°)	1000	1e+09
     2	(94.6713dB,129.646°)	1000	1e+09
     3	(94.653dB,126.514°)	1000	1e+09
     4	(94.653dB,126.514°)	1000	1e+09
     5	(94.653dB,126.514°)	1000	1e+09
     6	(94.653dB,126.514°)	1000	1e+09
     7	(94.653dB,126.514°)	1000	1e+09
     8	(94.653dB,126.514°)	1000	1e+09

Measurement: in
  step	PP(v(in))	FROM	TO
     1	(0dB,0°)	1000	1e+09
     2	(0dB,0°)	1000	1e+09
     3	(0dB,0°)	1000	1e+09
     4	(0dB,0°)	1000	1e+09
     5	(0dB,0°)	1000	1e+09
     6	(0dB,0°)	1000	1e+09
     7	(0dB,0°)	1000	1e+09
     8	(0dB,0°)	1000	1e+09

Measurement: gain
  step	out/in
     1	(94.6718dB,132.36°)
     2	(94.6713dB,129.646°)
     3	(94.653dB,126.514°)
     4	(94.653dB,126.514°)
     5	(94.653dB,126.514°)
     6	(94.653dB,126.514°)
     7	(94.653dB,126.514°)
     8	(94.653dB,126.514°)

Total elapsed time: 0.367 seconds.

