LTspice 24.0.9 for Windows
Circuit: * C:\Users\frisc\Documents\GitHub\CW-Tracker\Transmitter\Simulations\colpitts_220MHz_2.asc
Start Time: Sat Jul 13 19:42:55 2024
Warning: Multiple definitions of model "2scr375p" Type: BJT
Warning: Multiple definitions of model "bc857b" Type: BJT
Warning: Multiple definitions of model "bc847c" Type: BJT
Warning: Multiple definitions of model "bc847b" Type: BJT
solver = Normal
Maximum thread count: 4



.OP point found by inspection.
.step x=1



.step x=10



.step x=100
tnom = 27
temp = 27
method = modified trap
.step x=1000
Total elapsed time: 1.201 seconds.

