LTspice 24.0.9 for Windows
Circuit: * C:\Users\frisc\Documents\GitHub\CW-Tracker\Simulations\Draft3.asc
Start Time: Wed Apr  3 12:03:06 2024
solver = Normal
Maximum thread count: 4



Direct Newton iteration for .op point succeeded.
.step upper=1000 lower=1000



.step upper=10000 lower=1000



.step upper=100000 lower=1000



.step upper=1000 lower=2000



.step upper=10000 lower=2000



.step upper=100000 lower=2000



.step upper=1000 lower=3000



.step upper=10000 lower=3000



.step upper=100000 lower=3000



.step upper=1000 lower=4000



.step upper=10000 lower=4000



.step upper=100000 lower=4000



.step upper=1000 lower=5000



.step upper=10000 lower=5000



.step upper=100000 lower=5000



.step upper=1000 lower=6000



.step upper=10000 lower=6000



.step upper=100000 lower=6000



.step upper=1000 lower=7000



.step upper=10000 lower=7000



.step upper=100000 lower=7000



.step upper=1000 lower=8000



.step upper=10000 lower=8000



.step upper=100000 lower=8000



.step upper=1000 lower=9000



.step upper=10000 lower=9000



.step upper=100000 lower=9000



.step upper=1000 lower=10000



.step upper=10000 lower=10000
tnom = 27
temp = 27
method = modified trap
.step upper=100000 lower=10000
Total elapsed time: 1.594 seconds.

