LTspice 24.0.9 for Windows
Circuit: * C:\Users\frisc\Documents\GitHub\CW-Tracker\Simulations\Draft4.asc
Start Time: Wed Apr  3 12:14:57 2024
solver = Normal
Maximum thread count: 4
tnom = 27
temp = 27
method = modified trap
Limiting fall time of source i1 to 0.1
.OP point found by inspection.
Total elapsed time: 0.244 seconds.

