LTspice 24.0.9 for Windows
Circuit: * C:\Users\frisc\Documents\GitHub\CW-Tracker\Simulations\Draft1.asc
Start Time: Wed Apr  3 10:51:23 2024
solver = Normal
Maximum thread count: 4
tnom = 27
temp = 27
method = modified trap
.OP point found by inspection.
Total elapsed time: 0.057 seconds.

