LTspice 24.0.9 for Windows
Circuit: * C:\Users\frisc\Documents\GitHub\CW-Tracker\Simulations\Draft2.asc
Start Time: Wed Apr  3 11:58:15 2024
solver = Normal
Maximum thread count: 4
tnom = 27
temp = 27
method = modified trap
.OP point found by inspection.
Total elapsed time: 0.045 seconds.

